12

C      0.000000000      1.272718731      0.666762306   !X3
C      0.000000000     -0.000000000      1.458994269
C      0.000000000      1.272718731     -0.666762306   !X4
C      0.000000000     -0.000000000     -1.458994269
C     -0.000000000     -1.272718731     -0.666762306   !X1
C     -0.000000000     -1.272718731      0.666762306   !X2
O     -0.000000000     -0.000000000     -2.667965599
O     -0.000000000     -0.000000000      2.667965599
H     -0.000000000     -2.187548322     -1.265905178   !Y1
H     -0.000000000     -2.187548322      1.265905178   !Y2
H      0.000000000      2.187548322      1.265905178   !Y3
H      0.000000000      2.187548322     -1.265905178   !Y4
